       2
GEOMETRY FILE / created by CPMD
  H      0.000000000000      0.000000000000      0.000000000000              0.000000000000      0.000000000000      0.000000000000
 Cl      1.100000000000      0.000000000000      0.000000000000              0.000000000000      0.000000000000      0.000000000000
