       2
GEOMETRY FILE / created by CPMD
  H      5.000000000000      5.000000000000      5.000000000000              0.000000000000      0.000000000000      0.000000000000
 Cl      7.300000000000      5.000000000000      5.000000000000              0.000000000000      0.000000000000      0.000000000000
