       2
GEOMETRY FILE / created by CPMD
  H      0.000000000000      0.000000000000      0.000000000000              0.000000000000      0.000000000000      0.000000000000
 Cl      0.800000000000      0.000000000000      0.000000000000              0.000000000000      0.000000000000      0.000000000000
