       2
GEOMETRY FILE / created by CPMD
  H      0.000000000000      0.000000000000      0.000000000000              0.000000000000      0.000000000000      0.000000000000
  F      1.300000000000      0.000000000000      0.000000000000              0.000000000000      0.000000000000      0.000000000000
