       2
GEOMETRY FILE / created by CPMD
  H      0.000000000000      0.000000000000      0.000000000000              0.000000000000      0.000000000000      0.000000000000
  F      2.100000000000      0.000000000000      0.000000000000              0.000000000000      0.000000000000      0.000000000000
